
 *******************************************************************************

         NASA-GLENN CHEMICAL EQUILIBRIUM PROGRAM CEA2, MAY 21, 2004
                   BY  BONNIE MCBRIDE AND SANFORD GORDON
      REFS: NASA RP-1311, PART I, 1994 AND NASA RP-1311, PART II, 1996

 *******************************************************************************



 problem
     hp   p,bar=8.1,  t,k=298
 react
   fuel=H2 mw=18  t,k=298
   oxid=O2 mw=82  t,k=298
 output
     plot p t mw gam %f o/f phi,eq.ratio
 end

 OPTIONS: TP=F  HP=T  SP=F  TV=F  UV=F  SV=F  DETN=F  SHOCK=F  REFL=F  INCD=F
 RKT=F  FROZ=F  EQL=F  IONS=F  SIUNIT=T  DEBUGF=F  SHKDBG=F  DETDBG=F  TRNSPT=F

 T,K =   298.0000

 TRACE= 0.00E+00  S/R= 0.000000E+00  H/R= 0.000000E+00  U/R= 0.000000E+00

 P,BAR =     8.100000

    REACTANT           MOLES    (ENERGY/R),K   TEMP,K  DENSITY
        EXPLODED FORMULA
 F: H2              18.000000  -0.520220E+00   298.00  0.0000
          H  2.00000
 O: O2              82.000000  -0.530002E+00   298.00  0.0000
          O  2.00000

  SPECIES BEING CONSIDERED IN THIS SYSTEM
 (CONDENSED PHASE MAY HAVE NAME LISTED SEVERAL TIMES)
  LAST thermo.inp UPDATE:    9/09/04

  g 6/97  *H               g 4/02  HO2              tpis78  *H2            
  g 8/89  H2O              g 6/99  H2O2             g 5/97  *O             
  g 4/02  *OH              tpis89  *O2              g 8/01  O3             
  g11/99  H2O(cr)          g 8/01  H2O(L)           g 8/01  H2O(L)         

 O/F =  72.311998

                       EFFECTIVE FUEL     EFFECTIVE OXIDANT        MIXTURE
 ENTHALPY                  h(2)/R              h(1)/R               h0/R
 (KG-MOL)(K)/KG       -0.25806109E+00     -0.16563198E-01     -0.19857309E-01

 KG-FORM.WT./KG             bi(2)               bi(1)               b0i
  *H                   0.99212255E+00      0.00000000E+00      0.13532881E-01
  *O                   0.00000000E+00      0.62502344E-01      0.61649791E-01

 POINT ITN      T            H           O 
   1   11    1645.135     -15.373     -13.109




         THERMODYNAMIC EQUILIBRIUM COMBUSTION PROPERTIES AT ASSIGNED

                                   PRESSURES

 CASE =                

             REACTANT                       MOLES         ENERGY      TEMP
                                                         KJ/KG-MOL      K
 FUEL        H2                          18.0000000        -4.325    298.000
 OXIDANT     O2                          82.0000000        -4.407    298.000

 O/F=   72.31200  %FUEL=  1.364033  R,EQ.RATIO= 0.109756  PHI,EQ.RATIO= 0.109756

 THERMODYNAMIC PROPERTIES

 P, BAR            8.1000
 T, K             1645.14
 RHO, KG/CU M    1.7309 0
 H, KJ/KG        -0.16510
 U, KJ/KG         -468.12
 G, KJ/KG        -13900.3
 S, KJ/(KG)(K)     8.4493

 M, (1/n)          29.230
 (dLV/dLP)t      -1.00002
 (dLV/dLT)p        1.0011
 Cp, KJ/(KG)(K)    1.3574
 GAMMAs            1.2658
 SON VEL,M/SEC      769.6

 MOLE FRACTIONS

 H2O              0.19761
 *O               0.00001
 *OH              0.00034
 *O2              0.80204

  * THERMODYNAMIC PROPERTIES FITTED TO 20000.K

    PRODUCTS WHICH WERE CONSIDERED BUT WHOSE MOLE FRACTIONS
    WERE LESS THAN 5.000000E-06 FOR ALL ASSIGNED CONDITIONS

 *H              HO2             *H2             H2O2            O3             
 H2O(cr)         H2O(L)         



